matpower/matpower-converter/src/test/resources/case30.xiidm
<?xml version="1.0" encoding="UTF-8"?>
<iidm:network xmlns:iidm="http://www.itesla_project.eu/schema/iidm/1_0" id="case30" caseDate="2020-01-01T00:00:00.000Z" forecastDistance="0" sourceFormat="MATPOWER">
    <iidm:substation id="S22">
        <iidm:voltageLevel id="VL1" nominalV="135.0" topologyKind="BUS_BREAKER">
            <iidm:busBreakerTopology>
                <iidm:bus id="B1" v="135.0" angle="0.0"/>
            </iidm:busBreakerTopology>
            <iidm:generator id="G1-0" energySource="OTHER" minP="0.0" maxP="80.0" voltageRegulatorOn="true" targetP="23.54" targetV="1.0" targetQ="0.0" bus="B1" connectableBus="B1">
                <iidm:minMaxReactiveLimits minQ="-20.0" maxQ="150.0"/>
            </iidm:generator>
        </iidm:voltageLevel>
    </iidm:substation>
    <iidm:substation id="S25">
        <iidm:voltageLevel id="VL2" nominalV="135.0" topologyKind="BUS_BREAKER">
            <iidm:busBreakerTopology>
                <iidm:bus id="B2" v="135.0" angle="0.0"/>
            </iidm:busBreakerTopology>
            <iidm:generator id="G2-0" energySource="OTHER" minP="0.0" maxP="80.0" voltageRegulatorOn="true" targetP="60.97" targetV="1.0" targetQ="0.0" bus="B2" connectableBus="B2">
                <iidm:minMaxReactiveLimits minQ="-20.0" maxQ="60.0"/>
            </iidm:generator>
            <iidm:load id="LB2" loadType="UNDEFINED" p0="21.7" q0="12.7" bus="B2" connectableBus="B2"/>
        </iidm:voltageLevel>
    </iidm:substation>
    <iidm:substation id="S24">
        <iidm:voltageLevel id="VL3" nominalV="135.0" topologyKind="BUS_BREAKER">
            <iidm:busBreakerTopology>
                <iidm:bus id="B3" v="135.0" angle="0.0"/>
            </iidm:busBreakerTopology>
            <iidm:load id="LB3" loadType="UNDEFINED" p0="2.4" q0="1.2" bus="B3" connectableBus="B3"/>
        </iidm:voltageLevel>
    </iidm:substation>
    <iidm:substation id="S29">
        <iidm:voltageLevel id="VL4" nominalV="135.0" topologyKind="BUS_BREAKER">
            <iidm:busBreakerTopology>
                <iidm:bus id="B4" v="135.0" angle="0.0"/>
            </iidm:busBreakerTopology>
            <iidm:load id="LB4" loadType="UNDEFINED" p0="7.6" q0="1.6" bus="B4" connectableBus="B4"/>
        </iidm:voltageLevel>
    </iidm:substation>
    <iidm:substation id="S27">
        <iidm:voltageLevel id="VL5" nominalV="135.0" topologyKind="BUS_BREAKER">
            <iidm:busBreakerTopology>
                <iidm:bus id="B5" v="135.0" angle="0.0"/>
            </iidm:busBreakerTopology>
            <iidm:shunt id="B5SHB5" bPerSection="0.19" maximumSectionCount="1" currentSectionCount="1" bus="B5" connectableBus="B5"/>
        </iidm:voltageLevel>
    </iidm:substation>
    <iidm:substation id="S2">
        <iidm:voltageLevel id="VL6" nominalV="135.0" topologyKind="BUS_BREAKER">
            <iidm:busBreakerTopology>
                <iidm:bus id="B6" v="135.0" angle="0.0"/>
            </iidm:busBreakerTopology>
        </iidm:voltageLevel>
    </iidm:substation>
    <iidm:substation id="S1">
        <iidm:voltageLevel id="VL7" nominalV="135.0" topologyKind="BUS_BREAKER">
            <iidm:busBreakerTopology>
                <iidm:bus id="B7" v="135.0" angle="0.0"/>
            </iidm:busBreakerTopology>
            <iidm:load id="LB7" loadType="UNDEFINED" p0="22.8" q0="10.9" bus="B7" connectableBus="B7"/>
        </iidm:voltageLevel>
    </iidm:substation>
    <iidm:substation id="S4">
        <iidm:voltageLevel id="VL8" nominalV="135.0" topologyKind="BUS_BREAKER">
            <iidm:busBreakerTopology>
                <iidm:bus id="B8" v="135.0" angle="0.0"/>
            </iidm:busBreakerTopology>
            <iidm:load id="LB8" loadType="UNDEFINED" p0="30.0" q0="30.0" bus="B8" connectableBus="B8"/>
        </iidm:voltageLevel>
    </iidm:substation>
    <iidm:substation id="S3">
        <iidm:voltageLevel id="VL9" nominalV="135.0" topologyKind="BUS_BREAKER">
            <iidm:busBreakerTopology>
                <iidm:bus id="B9" v="135.0" angle="0.0"/>
            </iidm:busBreakerTopology>
        </iidm:voltageLevel>
    </iidm:substation>
    <iidm:substation id="S26">
        <iidm:voltageLevel id="VL10" nominalV="135.0" topologyKind="BUS_BREAKER">
            <iidm:busBreakerTopology>
                <iidm:bus id="B10" v="135.0" angle="0.0"/>
            </iidm:busBreakerTopology>
            <iidm:load id="LB10" loadType="UNDEFINED" p0="5.8" q0="2.0" bus="B10" connectableBus="B10"/>
        </iidm:voltageLevel>
    </iidm:substation>
    <iidm:substation id="S28">
        <iidm:voltageLevel id="VL11" nominalV="135.0" topologyKind="BUS_BREAKER">
            <iidm:busBreakerTopology>
                <iidm:bus id="B11" v="135.0" angle="0.0"/>
            </iidm:busBreakerTopology>
        </iidm:voltageLevel>
    </iidm:substation>
    <iidm:substation id="S30">
        <iidm:voltageLevel id="VL12" nominalV="135.0" topologyKind="BUS_BREAKER">
            <iidm:busBreakerTopology>
                <iidm:bus id="B12" v="135.0" angle="0.0"/>
            </iidm:busBreakerTopology>
            <iidm:load id="LB12" loadType="UNDEFINED" p0="11.2" q0="7.5" bus="B12" connectableBus="B12"/>
        </iidm:voltageLevel>
    </iidm:substation>
    <iidm:substation id="S15">
        <iidm:voltageLevel id="VL13" nominalV="135.0" topologyKind="BUS_BREAKER">
            <iidm:busBreakerTopology>
                <iidm:bus id="B13" v="135.0" angle="0.0"/>
            </iidm:busBreakerTopology>
            <iidm:generator id="G13-0" energySource="OTHER" minP="0.0" maxP="40.0" voltageRegulatorOn="true" targetP="37.0" targetV="1.0" targetQ="0.0" bus="B13" connectableBus="B13">
                <iidm:minMaxReactiveLimits minQ="-15.0" maxQ="44.7"/>
            </iidm:generator>
        </iidm:voltageLevel>
    </iidm:substation>
    <iidm:substation id="S16">
        <iidm:voltageLevel id="VL14" nominalV="135.0" topologyKind="BUS_BREAKER">
            <iidm:busBreakerTopology>
                <iidm:bus id="B14" v="135.0" angle="0.0"/>
            </iidm:busBreakerTopology>
            <iidm:load id="LB14" loadType="UNDEFINED" p0="6.2" q0="1.6" bus="B14" connectableBus="B14"/>
        </iidm:voltageLevel>
    </iidm:substation>
    <iidm:substation id="S17">
        <iidm:voltageLevel id="VL15" nominalV="135.0" topologyKind="BUS_BREAKER">
            <iidm:busBreakerTopology>
                <iidm:bus id="B15" v="135.0" angle="0.0"/>
            </iidm:busBreakerTopology>
            <iidm:load id="LB15" loadType="UNDEFINED" p0="8.2" q0="2.5" bus="B15" connectableBus="B15"/>
        </iidm:voltageLevel>
    </iidm:substation>
    <iidm:substation id="S18">
        <iidm:voltageLevel id="VL16" nominalV="135.0" topologyKind="BUS_BREAKER">
            <iidm:busBreakerTopology>
                <iidm:bus id="B16" v="135.0" angle="0.0"/>
            </iidm:busBreakerTopology>
            <iidm:load id="LB16" loadType="UNDEFINED" p0="3.5" q0="1.8" bus="B16" connectableBus="B16"/>
        </iidm:voltageLevel>
    </iidm:substation>
    <iidm:substation id="S19">
        <iidm:voltageLevel id="VL17" nominalV="135.0" topologyKind="BUS_BREAKER">
            <iidm:busBreakerTopology>
                <iidm:bus id="B17" v="135.0" angle="0.0"/>
            </iidm:busBreakerTopology>
            <iidm:load id="LB17" loadType="UNDEFINED" p0="9.0" q0="5.8" bus="B17" connectableBus="B17"/>
        </iidm:voltageLevel>
    </iidm:substation>
    <iidm:substation id="S20">
        <iidm:voltageLevel id="VL18" nominalV="135.0" topologyKind="BUS_BREAKER">
            <iidm:busBreakerTopology>
                <iidm:bus id="B18" v="135.0" angle="0.0"/>
            </iidm:busBreakerTopology>
            <iidm:load id="LB18" loadType="UNDEFINED" p0="3.2" q0="0.9" bus="B18" connectableBus="B18"/>
        </iidm:voltageLevel>
    </iidm:substation>
    <iidm:substation id="S21">
        <iidm:voltageLevel id="VL19" nominalV="135.0" topologyKind="BUS_BREAKER">
            <iidm:busBreakerTopology>
                <iidm:bus id="B19" v="135.0" angle="0.0"/>
            </iidm:busBreakerTopology>
            <iidm:load id="LB19" loadType="UNDEFINED" p0="9.5" q0="3.4" bus="B19" connectableBus="B19"/>
        </iidm:voltageLevel>
    </iidm:substation>
    <iidm:substation id="S11">
        <iidm:voltageLevel id="VL20" nominalV="135.0" topologyKind="BUS_BREAKER">
            <iidm:busBreakerTopology>
                <iidm:bus id="B20" v="135.0" angle="0.0"/>
            </iidm:busBreakerTopology>
            <iidm:load id="LB20" loadType="UNDEFINED" p0="2.2" q0="0.7" bus="B20" connectableBus="B20"/>
        </iidm:voltageLevel>
    </iidm:substation>
    <iidm:substation id="S12">
        <iidm:voltageLevel id="VL21" nominalV="135.0" topologyKind="BUS_BREAKER">
            <iidm:busBreakerTopology>
                <iidm:bus id="B21" v="135.0" angle="0.0"/>
            </iidm:busBreakerTopology>
            <iidm:load id="LB21" loadType="UNDEFINED" p0="17.5" q0="11.2" bus="B21" connectableBus="B21"/>
        </iidm:voltageLevel>
    </iidm:substation>
    <iidm:substation id="S13">
        <iidm:voltageLevel id="VL22" nominalV="135.0" topologyKind="BUS_BREAKER">
            <iidm:busBreakerTopology>
                <iidm:bus id="B22" v="135.0" angle="0.0"/>
            </iidm:busBreakerTopology>
            <iidm:generator id="G22-0" energySource="OTHER" minP="0.0" maxP="50.0" voltageRegulatorOn="true" targetP="21.59" targetV="1.0" targetQ="0.0" bus="B22" connectableBus="B22">
                <iidm:minMaxReactiveLimits minQ="-15.0" maxQ="62.5"/>
            </iidm:generator>
        </iidm:voltageLevel>
    </iidm:substation>
    <iidm:substation id="S14">
        <iidm:voltageLevel id="VL23" nominalV="135.0" topologyKind="BUS_BREAKER">
            <iidm:busBreakerTopology>
                <iidm:bus id="B23" v="135.0" angle="0.0"/>
            </iidm:busBreakerTopology>
            <iidm:generator id="G23-0" energySource="OTHER" minP="0.0" maxP="30.0" voltageRegulatorOn="true" targetP="19.2" targetV="1.0" targetQ="0.0" bus="B23" connectableBus="B23">
                <iidm:minMaxReactiveLimits minQ="-10.0" maxQ="40.0"/>
            </iidm:generator>
            <iidm:load id="LB23" loadType="UNDEFINED" p0="3.2" q0="1.6" bus="B23" connectableBus="B23"/>
        </iidm:voltageLevel>
    </iidm:substation>
    <iidm:substation id="S5">
        <iidm:voltageLevel id="VL24" nominalV="135.0" topologyKind="BUS_BREAKER">
            <iidm:busBreakerTopology>
                <iidm:bus id="B24" v="135.0" angle="0.0"/>
            </iidm:busBreakerTopology>
            <iidm:load id="LB24" loadType="UNDEFINED" p0="8.7" q0="6.7" bus="B24" connectableBus="B24"/>
            <iidm:shunt id="B24SHB24" bPerSection="0.04" maximumSectionCount="1" currentSectionCount="1" bus="B24" connectableBus="B24"/>
        </iidm:voltageLevel>
    </iidm:substation>
    <iidm:substation id="S6">
        <iidm:voltageLevel id="VL25" nominalV="135.0" topologyKind="BUS_BREAKER">
            <iidm:busBreakerTopology>
                <iidm:bus id="B25" v="135.0" angle="0.0"/>
            </iidm:busBreakerTopology>
        </iidm:voltageLevel>
    </iidm:substation>
    <iidm:substation id="S7">
        <iidm:voltageLevel id="VL26" nominalV="135.0" topologyKind="BUS_BREAKER">
            <iidm:busBreakerTopology>
                <iidm:bus id="B26" v="135.0" angle="0.0"/>
            </iidm:busBreakerTopology>
            <iidm:load id="LB26" loadType="UNDEFINED" p0="3.5" q0="2.3" bus="B26" connectableBus="B26"/>
        </iidm:voltageLevel>
    </iidm:substation>
    <iidm:substation id="S8">
        <iidm:voltageLevel id="VL27" nominalV="135.0" topologyKind="BUS_BREAKER">
            <iidm:busBreakerTopology>
                <iidm:bus id="B27" v="135.0" angle="0.0"/>
            </iidm:busBreakerTopology>
            <iidm:generator id="G27-0" energySource="OTHER" minP="0.0" maxP="55.0" voltageRegulatorOn="true" targetP="26.91" targetV="1.0" targetQ="0.0" bus="B27" connectableBus="B27">
                <iidm:minMaxReactiveLimits minQ="-15.0" maxQ="48.7"/>
            </iidm:generator>
        </iidm:voltageLevel>
    </iidm:substation>
    <iidm:substation id="S9">
        <iidm:voltageLevel id="VL28" nominalV="135.0" topologyKind="BUS_BREAKER">
            <iidm:busBreakerTopology>
                <iidm:bus id="B28" v="135.0" angle="0.0"/>
            </iidm:busBreakerTopology>
        </iidm:voltageLevel>
    </iidm:substation>
    <iidm:substation id="S10">
        <iidm:voltageLevel id="VL29" nominalV="135.0" topologyKind="BUS_BREAKER">
            <iidm:busBreakerTopology>
                <iidm:bus id="B29" v="135.0" angle="0.0"/>
            </iidm:busBreakerTopology>
            <iidm:load id="LB29" loadType="UNDEFINED" p0="2.4" q0="0.9" bus="B29" connectableBus="B29"/>
        </iidm:voltageLevel>
    </iidm:substation>
    <iidm:substation id="S23">
        <iidm:voltageLevel id="VL30" nominalV="135.0" topologyKind="BUS_BREAKER">
            <iidm:busBreakerTopology>
                <iidm:bus id="B30" v="135.0" angle="0.0"/>
            </iidm:busBreakerTopology>
            <iidm:load id="LB30" loadType="UNDEFINED" p0="10.6" q0="1.9" bus="B30" connectableBus="B30"/>
        </iidm:voltageLevel>
    </iidm:substation>
    <iidm:line id="L1-2-0" r="364.5" x="1093.5" g1="0.0" b1="8.230452674897119E-7" g2="0.0" b2="8.230452674897119E-7" bus1="B1" connectableBus1="B1" voltageLevelId1="VL1" bus2="B2" connectableBus2="B2" voltageLevelId2="VL2"/>
    <iidm:line id="L1-3-0" r="911.25" x="3462.75" g1="0.0" b1="5.486968449931413E-7" g2="0.0" b2="5.486968449931413E-7" bus1="B1" connectableBus1="B1" voltageLevelId1="VL1" bus2="B3" connectableBus2="B3" voltageLevelId2="VL3"/>
    <iidm:line id="L2-4-0" r="1093.5" x="3098.25" g1="0.0" b1="5.486968449931413E-7" g2="0.0" b2="5.486968449931413E-7" bus1="B2" connectableBus1="B2" voltageLevelId1="VL2" bus2="B4" connectableBus2="B4" voltageLevelId2="VL4"/>
    <iidm:line id="L3-4-0" r="182.25" x="729.0" g1="0.0" b1="0.0" g2="0.0" b2="0.0" bus1="B3" connectableBus1="B3" voltageLevelId1="VL3" bus2="B4" connectableBus2="B4" voltageLevelId2="VL4"/>
    <iidm:line id="L2-5-0" r="911.25" x="3645.0" g1="0.0" b1="5.486968449931413E-7" g2="0.0" b2="5.486968449931413E-7" bus1="B2" connectableBus1="B2" voltageLevelId1="VL2" bus2="B5" connectableBus2="B5" voltageLevelId2="VL5"/>
    <iidm:line id="L2-6-0" r="1093.5" x="3280.5" g1="0.0" b1="5.486968449931413E-7" g2="0.0" b2="5.486968449931413E-7" bus1="B2" connectableBus1="B2" voltageLevelId1="VL2" bus2="B6" connectableBus2="B6" voltageLevelId2="VL6"/>
    <iidm:line id="L4-6-0" r="182.25" x="729.0" g1="0.0" b1="0.0" g2="0.0" b2="0.0" bus1="B4" connectableBus1="B4" voltageLevelId1="VL4" bus2="B6" connectableBus2="B6" voltageLevelId2="VL6"/>
    <iidm:line id="L5-7-0" r="911.25" x="2187.0" g1="0.0" b1="2.7434842249657064E-7" g2="0.0" b2="2.7434842249657064E-7" bus1="B5" connectableBus1="B5" voltageLevelId1="VL5" bus2="B7" connectableBus2="B7" voltageLevelId2="VL7"/>
    <iidm:line id="L6-7-0" r="546.75" x="1458.0" g1="0.0" b1="2.7434842249657064E-7" g2="0.0" b2="2.7434842249657064E-7" bus1="B6" connectableBus1="B6" voltageLevelId1="VL6" bus2="B7" connectableBus2="B7" voltageLevelId2="VL7"/>
    <iidm:line id="L6-8-0" r="182.25" x="729.0" g1="0.0" b1="0.0" g2="0.0" b2="0.0" bus1="B6" connectableBus1="B6" voltageLevelId1="VL6" bus2="B8" connectableBus2="B8" voltageLevelId2="VL8"/>
    <iidm:line id="L6-9-0" r="0.0" x="3827.25" g1="0.0" b1="0.0" g2="0.0" b2="0.0" bus1="B6" connectableBus1="B6" voltageLevelId1="VL6" bus2="B9" connectableBus2="B9" voltageLevelId2="VL9"/>
    <iidm:line id="L6-10-0" r="0.0" x="10206.000000000002" g1="0.0" b1="0.0" g2="0.0" b2="0.0" bus1="B6" connectableBus1="B6" voltageLevelId1="VL6" bus2="B10" connectableBus2="B10" voltageLevelId2="VL10"/>
    <iidm:line id="L9-11-0" r="0.0" x="3827.25" g1="0.0" b1="0.0" g2="0.0" b2="0.0" bus1="B9" connectableBus1="B9" voltageLevelId1="VL9" bus2="B11" connectableBus2="B11" voltageLevelId2="VL11"/>
    <iidm:line id="L9-10-0" r="0.0" x="2004.75" g1="0.0" b1="0.0" g2="0.0" b2="0.0" bus1="B9" connectableBus1="B9" voltageLevelId1="VL9" bus2="B10" connectableBus2="B10" voltageLevelId2="VL10"/>
    <iidm:line id="L4-12-0" r="0.0" x="4738.5" g1="0.0" b1="0.0" g2="0.0" b2="0.0" bus1="B4" connectableBus1="B4" voltageLevelId1="VL4" bus2="B12" connectableBus2="B12" voltageLevelId2="VL12"/>
    <iidm:line id="L12-13-0" r="0.0" x="2551.5000000000005" g1="0.0" b1="0.0" g2="0.0" b2="0.0" bus1="B12" connectableBus1="B12" voltageLevelId1="VL12" bus2="B13" connectableBus2="B13" voltageLevelId2="VL13"/>
    <iidm:line id="L12-14-0" r="2187.0" x="4738.5" g1="0.0" b1="0.0" g2="0.0" b2="0.0" bus1="B12" connectableBus1="B12" voltageLevelId1="VL12" bus2="B14" connectableBus2="B14" voltageLevelId2="VL14"/>
    <iidm:line id="L12-15-0" r="1275.7500000000002" x="2369.25" g1="0.0" b1="0.0" g2="0.0" b2="0.0" bus1="B12" connectableBus1="B12" voltageLevelId1="VL12" bus2="B15" connectableBus2="B15" voltageLevelId2="VL15"/>
    <iidm:line id="L12-16-0" r="1640.25" x="3645.0" g1="0.0" b1="0.0" g2="0.0" b2="0.0" bus1="B12" connectableBus1="B12" voltageLevelId1="VL12" bus2="B16" connectableBus2="B16" voltageLevelId2="VL16"/>
    <iidm:line id="L14-15-0" r="4009.5" x="3645.0" g1="0.0" b1="0.0" g2="0.0" b2="0.0" bus1="B14" connectableBus1="B14" voltageLevelId1="VL14" bus2="B15" connectableBus2="B15" voltageLevelId2="VL15"/>
    <iidm:line id="L16-17-0" r="1458.0" x="3462.75" g1="0.0" b1="0.0" g2="0.0" b2="0.0" bus1="B16" connectableBus1="B16" voltageLevelId1="VL16" bus2="B17" connectableBus2="B17" voltageLevelId2="VL17"/>
    <iidm:line id="L15-18-0" r="2004.75" x="4009.5" g1="0.0" b1="0.0" g2="0.0" b2="0.0" bus1="B15" connectableBus1="B15" voltageLevelId1="VL15" bus2="B18" connectableBus2="B18" voltageLevelId2="VL18"/>
    <iidm:line id="L18-19-0" r="1093.5" x="2369.25" g1="0.0" b1="0.0" g2="0.0" b2="0.0" bus1="B18" connectableBus1="B18" voltageLevelId1="VL18" bus2="B19" connectableBus2="B19" voltageLevelId2="VL19"/>
    <iidm:line id="L19-20-0" r="546.75" x="1275.7500000000002" g1="0.0" b1="0.0" g2="0.0" b2="0.0" bus1="B19" connectableBus1="B19" voltageLevelId1="VL19" bus2="B20" connectableBus2="B20" voltageLevelId2="VL20"/>
    <iidm:line id="L10-20-0" r="1640.25" x="3827.25" g1="0.0" b1="0.0" g2="0.0" b2="0.0" bus1="B10" connectableBus1="B10" voltageLevelId1="VL10" bus2="B20" connectableBus2="B20" voltageLevelId2="VL20"/>
    <iidm:line id="L10-17-0" r="546.75" x="1458.0" g1="0.0" b1="0.0" g2="0.0" b2="0.0" bus1="B10" connectableBus1="B10" voltageLevelId1="VL10" bus2="B17" connectableBus2="B17" voltageLevelId2="VL17"/>
    <iidm:line id="L10-21-0" r="546.75" x="1275.7500000000002" g1="0.0" b1="0.0" g2="0.0" b2="0.0" bus1="B10" connectableBus1="B10" voltageLevelId1="VL10" bus2="B21" connectableBus2="B21" voltageLevelId2="VL21"/>
    <iidm:line id="L10-22-0" r="1275.7500000000002" x="2733.75" g1="0.0" b1="0.0" g2="0.0" b2="0.0" bus1="B10" connectableBus1="B10" voltageLevelId1="VL10" bus2="B22" connectableBus2="B22" voltageLevelId2="VL22"/>
    <iidm:line id="L21-22-0" r="182.25" x="364.5" g1="0.0" b1="0.0" g2="0.0" b2="0.0" bus1="B21" connectableBus1="B21" voltageLevelId1="VL21" bus2="B22" connectableBus2="B22" voltageLevelId2="VL22"/>
    <iidm:line id="L15-23-0" r="1822.5" x="3645.0" g1="0.0" b1="0.0" g2="0.0" b2="0.0" bus1="B15" connectableBus1="B15" voltageLevelId1="VL15" bus2="B23" connectableBus2="B23" voltageLevelId2="VL23"/>
    <iidm:line id="L22-24-0" r="2187.0" x="3280.5" g1="0.0" b1="0.0" g2="0.0" b2="0.0" bus1="B22" connectableBus1="B22" voltageLevelId1="VL22" bus2="B24" connectableBus2="B24" voltageLevelId2="VL24"/>
    <iidm:line id="L23-24-0" r="2369.25" x="4920.75" g1="0.0" b1="0.0" g2="0.0" b2="0.0" bus1="B23" connectableBus1="B23" voltageLevelId1="VL23" bus2="B24" connectableBus2="B24" voltageLevelId2="VL24"/>
    <iidm:line id="L24-25-0" r="3462.75" x="6014.25" g1="0.0" b1="0.0" g2="0.0" b2="0.0" bus1="B24" connectableBus1="B24" voltageLevelId1="VL24" bus2="B25" connectableBus2="B25" voltageLevelId2="VL25"/>
    <iidm:line id="L25-26-0" r="4556.25" x="6925.5" g1="0.0" b1="0.0" g2="0.0" b2="0.0" bus1="B25" connectableBus1="B25" voltageLevelId1="VL25" bus2="B26" connectableBus2="B26" voltageLevelId2="VL26"/>
    <iidm:line id="L25-27-0" r="2004.75" x="3827.25" g1="0.0" b1="0.0" g2="0.0" b2="0.0" bus1="B25" connectableBus1="B25" voltageLevelId1="VL25" bus2="B27" connectableBus2="B27" voltageLevelId2="VL27"/>
    <iidm:line id="L28-27-0" r="0.0" x="7290.0" g1="0.0" b1="0.0" g2="0.0" b2="0.0" bus1="B28" connectableBus1="B28" voltageLevelId1="VL28" bus2="B27" connectableBus2="B27" voltageLevelId2="VL27"/>
    <iidm:line id="L27-29-0" r="4009.5" x="7654.5" g1="0.0" b1="0.0" g2="0.0" b2="0.0" bus1="B27" connectableBus1="B27" voltageLevelId1="VL27" bus2="B29" connectableBus2="B29" voltageLevelId2="VL29"/>
    <iidm:line id="L27-30-0" r="5832.0" x="10935.0" g1="0.0" b1="0.0" g2="0.0" b2="0.0" bus1="B27" connectableBus1="B27" voltageLevelId1="VL27" bus2="B30" connectableBus2="B30" voltageLevelId2="VL30"/>
    <iidm:line id="L29-30-0" r="4374.0" x="8201.25" g1="0.0" b1="0.0" g2="0.0" b2="0.0" bus1="B29" connectableBus1="B29" voltageLevelId1="VL29" bus2="B30" connectableBus2="B30" voltageLevelId2="VL30"/>
    <iidm:line id="L8-28-0" r="1093.5" x="3645.0" g1="0.0" b1="5.486968449931413E-7" g2="0.0" b2="5.486968449931413E-7" bus1="B8" connectableBus1="B8" voltageLevelId1="VL8" bus2="B28" connectableBus2="B28" voltageLevelId2="VL28"/>
    <iidm:line id="L6-28-0" r="364.5" x="1093.5" g1="0.0" b1="2.7434842249657064E-7" g2="0.0" b2="2.7434842249657064E-7" bus1="B6" connectableBus1="B6" voltageLevelId1="VL6" bus2="B28" connectableBus2="B28" voltageLevelId2="VL28"/>
</iidm:network>
